// Generated for: spectre
// Generated on: Jan  4 11:15:59 2024
// Design library name: mylib
// Design cell name: op_test
// Design view name: schematic
simulator lang=spectre
global 0 vdd!
