// Generated for: spectre
// Generated on: Dec 26 00:34:13 2023
// Design library name: mylib
// Design cell name: op_test
// Design view name: schematic
simulator lang=spectre
global 0 vdd!
