simulator lang=spectre
include "n18.scs"
